12
Properties=species:S:1:pos:R:3 asdf=T pbc="F F F"
O       49.89076898      58.41657449      50.11239506
O       50.08229869      59.64418287      50.15019907
O       51.12075052      55.83655959      51.61628152
O       51.92536979      55.09269017      49.61608320
O       53.18704905      55.40034994      49.37962835
O       54.41465689      55.59188450      49.41742754
Si      51.08626461      56.36042512      49.92593374
Si      50.39961631      56.85558354      52.54641848
Si      50.53761027      56.33083464      55.06494056
Si      49.83911943      57.20156270      56.90883066
O       49.60955522      58.14334840      52.16423696
O       49.81502605      57.19496071      49.61810489
