12
asdf
O   49.89076898 58.41657449 50.11239506 
O   50.08229869 59.64418287 50.15019907 
O   50.85567709 48.98711957 53.37881276 
O   51.57810299 49.4918256 47.34985769  
O   58.41658992 49.89076851 50.1123985  
O   59.64419776 50.08230307 50.15019769 
Si   50.73899781 50.75956055 47.65970823
Si   50.13454288 50.00614352 54.30894972
Si   50.27253684 49.48139462 56.8274718 
Si   49.574046 50.35212268 58.6713619   
O   49.34448179 51.29390838 53.9267682  
O   49.46775925 51.59409614 47.35187938 
