    75   
l;akjshdf;lask
   Ar                   -0.31818903891992212E-01        -0.19979335148450543E+01         0.65551086294301231E+00
   Ar                   -0.34993977769942647E+00         0.13388484024087405E+00        -0.21704081131552728E+01
   Ar                   -0.14129930200561700E+01         0.11521846116938390E+01         0.27865395122694053E+00
   Ar                    0.16474745238201745E+01        -0.83614119643552809E+00         0.13945140805616016E+01
   Ar                   -0.48683442126932869E+00        -0.11795861237267873E+01        -0.90681554289635791E+00
   Ar                   -0.15855954702036075E+01         0.60746294066269926E-01         0.41703283501526350E+00
   Ar                    0.91677719949582515E+00        -0.18534722289611139E+01         0.42821426525266430E-01
   Ar                    0.93875919172178279E+00         0.83919389838719483E+00         0.17629910193427820E+01
   Ar                   -0.28993164728928836E-02        -0.18414275534748503E+01         0.17705113841215641E+01
   Ar                   -0.11490763128081942E+01         0.68597094354774191E+00         0.12551334021273242E+01
   Ar                   -0.19191684427922213E+01        -0.15383074736972264E+01        -0.41728611037449015E+00
   Ar                    0.46827463643684564E+00         0.15634274651968680E+01         0.15639462622472058E+00
   Ar                   -0.12180266279889613E+01         0.74382616609949870E+00        -0.16028812252875277E+01
   Ar                    0.88237460712389837E+00         0.41102006884550107E+00        -0.11884454641309499E+01
   Ar                    0.19819242041629022E+01         0.17959657840080772E+01         0.10029829357027469E+00
   Ar                   -0.14576102432341220E+01         0.14641306288706506E+01        -0.77596664643981494E+00
   Ar                    0.13311006050508061E+01         0.12210706215514397E+01         0.77249705117512002E+00
   Ar                    0.11238414075367473E+01         0.23167579699687804E+01         0.59805351756754477E+00
   Ar                   -0.17291593003201078E+01        -0.10386366575964379E+01         0.56173888175038844E+00
   Ar                    0.17766890219475778E+00        -0.43229855080261231E+00        -0.13642291726423228E+01
   Ar                   -0.97934584646496181E+00         0.21457050671074751E+01         0.35973339769344560E-01
   Ar                    0.35437269091139717E+00         0.58610828810563653E+00        -0.24891095786504577E+00
   Ar                   -0.14984456533341377E+01        -0.11571939856233691E+01        -0.13729209267100102E+01
   Ar                   -0.90132941251076537E+00        -0.15890806797903181E+01         0.47489932133763790E-01
   Ar                    0.74757698884408919E+00        -0.41070222408237919E-01        -0.21975289780497529E+01
   Ar                    0.16000353319008167E+01        -0.10833015404056798E+01        -0.42644656323854441E+00
   Ar                   -0.85578405444009020E+00         0.19836419112580636E+00         0.22249760076991714E+01
   Ar                   -0.52077954724821029E+00         0.15997289388711922E+01        -0.13851207454666761E+01
   Ar                   -0.46643256775182707E+00         0.12705966927368746E+01        -0.33843564164527318E+00
   Ar                    0.13217647403515231E+01         0.10543325350590180E+01        -0.36097105856929285E+00
   Ar                    0.18791478037596083E+01        -0.15523075856615633E+01         0.55527136028996826E+00
   Ar                   -0.90434240802961063E+00        -0.26227166445106254E+00        -0.13426432851826546E+01
   Ar                    0.46919640734506107E+00         0.13982989278876601E+01        -0.95991312798594064E+00
   Ar                   -0.43527617125790602E+00        -0.82733996957781542E+00         0.20117122003240979E+01
   Ar                    0.94393473774784864E+00        -0.17102000535772897E+01         0.11684349772891269E+01
   Ar                    0.11927570329457233E+01         0.22840663324124591E+00         0.34434648328083911E+00
   Ar                    0.80675999784315211E+00        -0.15050373723928434E+00         0.13205469652464208E+01
   Ar                   -0.23036012877785456E+00         0.56738149883702782E+00        -0.11513091940470610E+01
   Ar                    0.47428966362677116E+00         0.17448985738862990E+01         0.12778199929867586E+01
   Ar                    0.32314052408403798E+00         0.99434386881271142E+00        -0.19757269346994348E+01
   Ar                    0.21742704141200608E+01         0.68466614991210795E+00         0.25212382126370825E+00
   Ar                   -0.23550075835308886E+01        -0.48089969028919949E+00        -0.18095098900522505E+00
   Ar                   -0.10340648269608112E+00        -0.19481441527764591E+01        -0.15646740822512961E+01
   Ar                   -0.40614068097974902E-01         0.22636916522195940E+01        -0.54958443801374879E+00
   Ar                    0.17513816561218003E+01         0.36632965920578943E-01        -0.57678395187286180E+00
   Ar                   -0.51906792497883258E+00        -0.10157688526536928E+01        -0.20070693494867577E+01
   Ar                    0.11028769819278064E+01         0.21609105428609694E+01        -0.49742335899339130E+00
   Ar                   -0.58533409773121534E-01        -0.21199113017617126E+01        -0.46198278496389195E+00
   Ar                   -0.57443848759657523E+00         0.46360908770684761E+00         0.36250361312961021E+00
   Ar                   -0.19408305783242219E+01        -0.85101945964449949E-01        -0.11328354539552683E+01
   Ar                    0.12911720250697376E+01        -0.60098994332569278E+00        -0.13927438258600089E+01
   Ar                   -0.13059872611223375E+01        -0.42433700582982903E+00         0.14020617144307324E+01
   Ar                    0.69290719323392680E+00        -0.98518492239649746E+00         0.20106498185934440E+01
   Ar                    0.26061916487167380E+00         0.50304490524259581E-01         0.22408053928638059E+01
   Ar                   -0.47024876774892171E+00         0.14638036699764463E+01         0.76944398919563517E+00
   Ar                   -0.11533011089085941E+01         0.43838216737316121E+00        -0.54438023374075861E+00
   Ar                   -0.21909087268885052E+01         0.64267324648536228E+00        -0.32994017497555145E+00
   Ar                    0.17985736176780627E+01         0.29494252032719054E+00         0.12407901818028990E+01
   Ar                   -0.13088093929264264E+01        -0.64537976655696994E+00        -0.40244403256172956E+00
   Ar                   -0.72806604888300841E+00        -0.61414114224324823E+00         0.50321664100420382E+00
   Ar                    0.58190700242729743E+00        -0.11764550239621265E+01        -0.20375133245956825E+01
   Ar                    0.76295487032175080E+00        -0.39856614223046932E+00        -0.46096170174211837E+00
   Ar                   -0.18984192625428237E+00         0.98379818372972361E+00         0.17626094038795932E+01
   Ar                    0.35732053082269266E+00         0.75205656780568764E+00         0.85193003227115749E+00
   Ar                   -0.11615783313712939E-01         0.24518592812569855E+01         0.54790084365451175E+00
   Ar                   -0.30037351641127064E+00        -0.45982215356177320E-02         0.13137127340496511E+01
   Ar                   -0.32302387420727019E+00        -0.23311277704602296E+00        -0.43900486198788424E+00
   Ar                    0.20464424347080539E+01        -0.44048313547036416E+00         0.40404945837562944E+00
   Ar                   -0.87742283362215856E+00        -0.14532513014665307E+01         0.11731408779429404E+01
   Ar                    0.23958557033810957E+00        -0.20006706088257151E+00         0.43577356773599696E+00
   Ar                    0.10444643146635604E+01        -0.86357744845499473E+00         0.49174166512021816E+00
   Ar                    0.61894160913574303E+00        -0.13683949197425558E+01        -0.93608702771167129E+00
   Ar                   -0.10710496012290458E+01        -0.20890067619801189E+01        -0.93813797888045991E+00
   Ar                    0.96356984249914845E-01        -0.11457445919989102E+01        -0.26131111502334385E-02
   Ar                    0.11828314082342156E+00        -0.10054649460699718E+01         0.10898239210788832E+01
